_audit_creation_date      'Jan. 5, 2021'
_audit_creation_method    'Draft CIF file generated with Atomsk'
 
_chemical_name_common             ?
_chemical_melting_point           ?
_chemical_formula_iupac           'Ag12 Al66 O102'
_chemical_formula_moiety          'Ag12 Al66 O102'
_chemical_formula_sum             'Ag12 Al66 O102'
_chemical_formula_weight          4707.098
_chemical_compound_source         ?
_chemical_absolute_configuration  ?
 
_space_group_IT_number            1
_symmetry_cell_setting            triclinic
_symmetry_space_group_name_Hall   'P 1'
_symmetry_space_group_name_H-M    'P 1'
 
_cell_length_a                    5.6300
_cell_length_b                    9.7514
_cell_length_c                    33.4500
_cell_angle_alpha                 90.0000
_cell_angle_beta                  90.0000
_cell_angle_gamma                 90.0000
_cell_volume                      1836.4264
 
loop_
 _atom_site_type_symbol
 _atom_site_fract_x
 _atom_site_fract_y
 _atom_site_fract_z
 _atom_site_occupancy
 _atom_site_thermal_displace_type
 _atom_site_B_iso_or_equiv
Ag  0.000000  0.000000  0.830500 1.000000 Biso 1.000000
Ag  0.500000  0.500000  0.830500 1.000000 Biso 1.000000
Ag  0.000000  0.000000  0.169500 1.000000 Biso 1.000000
Ag  0.500000  0.500000  0.169500 1.000000 Biso 1.000000
Ag  0.500001  0.166667  0.163833 1.000000 Biso 1.000000
Ag  0.000001  0.666667  0.163833 1.000000 Biso 1.000000
Ag  0.500001  0.166667  0.502833 1.000000 Biso 1.000000
Ag  0.000001  0.666667  0.502833 1.000000 Biso 1.000000
Ag  1.000000  0.333334  0.497167 1.000000 Biso 1.000000
Ag  0.500000  0.833334  0.497167 1.000000 Biso 1.000000
Ag  1.000000  0.333334  0.836167 1.000000 Biso 1.000000
Ag  0.500000  0.833334  0.836167 1.000000 Biso 1.000000
Al  0.000000  0.000000  0.000000 1.000000 Biso 1.000000
Al  0.500000  0.500000  0.000000 1.000000 Biso 1.000000
Al  0.500001  0.166667  0.333333 1.000000 Biso 1.000000
Al  0.000001  0.666667  0.333333 1.000000 Biso 1.000000
Al  1.000000  0.333334  0.666667 1.000000 Biso 1.000000
Al  0.500000  0.833334  0.666667 1.000000 Biso 1.000000
Al  0.751250  0.416250  0.928400 1.000000 Biso 1.000000
Al  0.251250  0.916250  0.928400 1.000000 Biso 1.000000
Al  0.748750  0.083750  0.071600 1.000000 Biso 1.000000
Al  0.248750  0.583750  0.071600 1.000000 Biso 1.000000
Al  0.000000  0.167500  0.928400 1.000000 Biso 1.000000
Al  0.500000  0.667500  0.928400 1.000000 Biso 1.000000
Al  0.500000  0.332500  0.071600 1.000000 Biso 1.000000
Al  0.000000  0.832500  0.071600 1.000000 Biso 1.000000
Al  0.248750  0.416250  0.928400 1.000000 Biso 1.000000
Al  0.748750  0.916250  0.928400 1.000000 Biso 1.000000
Al  0.251250  0.083750  0.071600 1.000000 Biso 1.000000
Al  0.751250  0.583750  0.071600 1.000000 Biso 1.000000
Al  0.751251  0.082917  0.261733 1.000000 Biso 1.000000
Al  0.251251  0.582917  0.261733 1.000000 Biso 1.000000
Al  0.248751  0.250417  0.404933 1.000000 Biso 1.000000
Al  0.748751  0.750417  0.404933 1.000000 Biso 1.000000
Al  0.500001  0.334167  0.261733 1.000000 Biso 1.000000
Al  0.000001  0.834167  0.261733 1.000000 Biso 1.000000
Al  0.000001  0.499167  0.404933 1.000000 Biso 1.000000
Al  0.500001  0.999167  0.404933 1.000000 Biso 1.000000
Al  0.248751  0.082917  0.261733 1.000000 Biso 1.000000
Al  0.748751  0.582917  0.261733 1.000000 Biso 1.000000
Al  0.751251  0.250417  0.404933 1.000000 Biso 1.000000
Al  0.251251  0.750417  0.404933 1.000000 Biso 1.000000
Al  0.251250  0.249584  0.595067 1.000000 Biso 1.000000
Al  0.751250  0.749584  0.595067 1.000000 Biso 1.000000
Al  0.748750  0.417084  0.738267 1.000000 Biso 1.000000
Al  0.248750  0.917084  0.738267 1.000000 Biso 1.000000
Al  0.500000  0.000834  0.595067 1.000000 Biso 1.000000
Al  1.000000  0.500834  0.595067 1.000000 Biso 1.000000
Al  1.000000  0.165834  0.738267 1.000000 Biso 1.000000
Al  0.500000  0.665834  0.738267 1.000000 Biso 1.000000
Al  0.748750  0.249584  0.595067 1.000000 Biso 1.000000
Al  0.248750  0.749584  0.595067 1.000000 Biso 1.000000
Al  0.251250  0.417084  0.738267 1.000000 Biso 1.000000
Al  0.751250  0.917084  0.738267 1.000000 Biso 1.000000
Al  0.000000  0.000000  0.450300 1.000000 Biso 1.000000
Al  0.500000  0.500000  0.450300 1.000000 Biso 1.000000
Al  0.000000  0.000000  0.549700 1.000000 Biso 1.000000
Al  0.500000  0.500000  0.549700 1.000000 Biso 1.000000
Al  0.500001  0.166667  0.783633 1.000000 Biso 1.000000
Al  0.000001  0.666667  0.783633 1.000000 Biso 1.000000
Al  0.500001  0.166667  0.883033 1.000000 Biso 1.000000
Al  0.000001  0.666667  0.883033 1.000000 Biso 1.000000
Al  1.000000  0.333334  0.116967 1.000000 Biso 1.000000
Al  0.500000  0.833333  0.116967 1.000000 Biso 1.000000
Al  1.000000  0.333334  0.216367 1.000000 Biso 1.000000
Al  0.500000  0.833334  0.216367 1.000000 Biso 1.000000
Al  0.000000  0.000000  0.350400 1.000000 Biso 1.000000
Al  0.500000  0.500000  0.350400 1.000000 Biso 1.000000
Al  0.000000  0.000000  0.649600 1.000000 Biso 1.000000
Al  0.500000  0.500000  0.649600 1.000000 Biso 1.000000
Al  0.500001  0.166667  0.683733 1.000000 Biso 1.000000
Al  0.000001  0.666667  0.683733 1.000000 Biso 1.000000
Al  0.500001  0.166667  0.982933 1.000000 Biso 1.000000
Al  0.000001  0.666667  0.982933 1.000000 Biso 1.000000
Al  1.000000  0.333334  0.017067 1.000000 Biso 1.000000
Al  0.500000  0.833333  0.017067 1.000000 Biso 1.000000
Al  1.000000  0.333334  0.316267 1.000000 Biso 1.000000
Al  0.500000  0.833334  0.316267 1.000000 Biso 1.000000
O  0.730400  0.423200  0.034700 1.000000 Biso 1.000000
O  0.230400  0.923200  0.034700 1.000000 Biso 1.000000
O  0.769600  0.076800  0.965300 1.000000 Biso 1.000000
O  0.269600  0.576800  0.965300 1.000000 Biso 1.000000
O  0.000000  0.153600  0.034700 1.000000 Biso 1.000000
O  0.500000  0.653600  0.034700 1.000000 Biso 1.000000
O  0.500000  0.346400  0.965300 1.000000 Biso 1.000000
O  0.000000  0.846400  0.965300 1.000000 Biso 1.000000
O  0.269600  0.423200  0.034700 1.000000 Biso 1.000000
O  0.769600  0.923200  0.034700 1.000000 Biso 1.000000
O  0.230400  0.076800  0.965300 1.000000 Biso 1.000000
O  0.730400  0.576800  0.965300 1.000000 Biso 1.000000
O  0.730401  0.089867  0.368033 1.000000 Biso 1.000000
O  0.230401  0.589867  0.368033 1.000000 Biso 1.000000
O  0.269601  0.243467  0.298633 1.000000 Biso 1.000000
O  0.769601  0.743467  0.298633 1.000000 Biso 1.000000
O  0.500001  0.320267  0.368033 1.000000 Biso 1.000000
O  0.000001  0.820267  0.368033 1.000000 Biso 1.000000
O  0.500001  0.013067  0.298633 1.000000 Biso 1.000000
O  0.000001  0.513067  0.298633 1.000000 Biso 1.000000
O  0.269601  0.089867  0.368033 1.000000 Biso 1.000000
O  0.769601  0.589867  0.368033 1.000000 Biso 1.000000
O  0.730401  0.243467  0.298633 1.000000 Biso 1.000000
O  0.230401  0.743467  0.298633 1.000000 Biso 1.000000
O  0.230400  0.256534  0.701367 1.000000 Biso 1.000000
O  0.730400  0.756534  0.701367 1.000000 Biso 1.000000
O  0.769600  0.410134  0.631967 1.000000 Biso 1.000000
O  0.269600  0.910134  0.631967 1.000000 Biso 1.000000
O  1.000000  0.486934  0.701367 1.000000 Biso 1.000000
O  0.500000  0.986934  0.701367 1.000000 Biso 1.000000
O  1.000000  0.179734  0.631967 1.000000 Biso 1.000000
O  0.500000  0.679734  0.631967 1.000000 Biso 1.000000
O  0.769600  0.256534  0.701367 1.000000 Biso 1.000000
O  0.269600  0.756534  0.701367 1.000000 Biso 1.000000
O  0.230400  0.410134  0.631967 1.000000 Biso 1.000000
O  0.730400  0.910134  0.631967 1.000000 Biso 1.000000
O  0.000000  0.000000  0.294800 1.000000 Biso 1.000000
O  0.500000  0.500000  0.294800 1.000000 Biso 1.000000
O  0.000000  0.000000  0.705200 1.000000 Biso 1.000000
O  0.500000  0.500000  0.705200 1.000000 Biso 1.000000
O  0.500001  0.166667  0.628133 1.000000 Biso 1.000000
O  0.000001  0.666667  0.628133 1.000000 Biso 1.000000
O  0.500001  0.166666  0.038533 1.000000 Biso 1.000000
O  0.000001  0.666666  0.038533 1.000000 Biso 1.000000
O  1.000000  0.333334  0.961467 1.000000 Biso 1.000000
O  0.500000  0.833334  0.961467 1.000000 Biso 1.000000
O  1.000000  0.333334  0.371867 1.000000 Biso 1.000000
O  0.500000  0.833334  0.371867 1.000000 Biso 1.000000
O  0.000000  0.000000  0.500000 1.000000 Biso 1.000000
O  0.500000  0.500000  0.500000 1.000000 Biso 1.000000
O  0.500001  0.166667  0.833333 1.000000 Biso 1.000000
O  0.000001  0.666667  0.833333 1.000000 Biso 1.000000
O  1.000000  0.333334  0.166667 1.000000 Biso 1.000000
O  0.500000  0.833333  0.166667 1.000000 Biso 1.000000
O  0.000000  0.000000  0.098500 1.000000 Biso 1.000000
O  0.500000  0.500000  0.098500 1.000000 Biso 1.000000
O  0.000000  0.000000  0.901500 1.000000 Biso 1.000000
O  0.500000  0.500000  0.901500 1.000000 Biso 1.000000
O  0.500001  0.166667  0.431833 1.000000 Biso 1.000000
O  0.000001  0.666667  0.431833 1.000000 Biso 1.000000
O  0.500001  0.166667  0.234833 1.000000 Biso 1.000000
O  0.000001  0.666667  0.234833 1.000000 Biso 1.000000
O  1.000000  0.333334  0.765167 1.000000 Biso 1.000000
O  0.500000  0.833334  0.765167 1.000000 Biso 1.000000
O  1.000000  0.333334  0.568167 1.000000 Biso 1.000000
O  0.500000  0.833334  0.568167 1.000000 Biso 1.000000
O  0.744950  0.418350  0.234700 1.000000 Biso 1.000000
O  0.244950  0.918350  0.234700 1.000000 Biso 1.000000
O  0.755050  0.081650  0.765300 1.000000 Biso 1.000000
O  0.255050  0.581650  0.765300 1.000000 Biso 1.000000
O  0.000000  0.163300  0.234700 1.000000 Biso 1.000000
O  0.500000  0.663300  0.234700 1.000000 Biso 1.000000
O  0.500000  0.336700  0.765300 1.000000 Biso 1.000000
O  0.000000  0.836700  0.765300 1.000000 Biso 1.000000
O  0.255050  0.418350  0.234700 1.000000 Biso 1.000000
O  0.755050  0.918350  0.234700 1.000000 Biso 1.000000
O  0.244950  0.081650  0.765300 1.000000 Biso 1.000000
O  0.744950  0.581650  0.765300 1.000000 Biso 1.000000
O  0.744950  0.085017  0.568033 1.000000 Biso 1.000000
O  0.244951  0.585017  0.568033 1.000000 Biso 1.000000
O  0.255051  0.248317  0.098633 1.000000 Biso 1.000000
O  0.755051  0.748317  0.098633 1.000000 Biso 1.000000
O  0.500001  0.329967  0.568033 1.000000 Biso 1.000000
O  0.000001  0.829967  0.568033 1.000000 Biso 1.000000
O  0.500001  0.003367  0.098633 1.000000 Biso 1.000000
O  0.000001  0.503367  0.098633 1.000000 Biso 1.000000
O  0.255051  0.085017  0.568033 1.000000 Biso 1.000000
O  0.755051  0.585017  0.568033 1.000000 Biso 1.000000
O  0.744950  0.248317  0.098633 1.000000 Biso 1.000000
O  0.244951  0.748317  0.098633 1.000000 Biso 1.000000
O  0.244950  0.251684  0.901367 1.000000 Biso 1.000000
O  0.744950  0.751684  0.901367 1.000000 Biso 1.000000
O  0.755050  0.414984  0.431967 1.000000 Biso 1.000000
O  0.255050  0.914984  0.431967 1.000000 Biso 1.000000
O  1.000000  0.496634  0.901367 1.000000 Biso 1.000000
O  0.500000  0.996634  0.901367 1.000000 Biso 1.000000
O  1.000000  0.170034  0.431967 1.000000 Biso 1.000000
O  0.500000  0.670034  0.431967 1.000000 Biso 1.000000
O  0.755050  0.251684  0.901367 1.000000 Biso 1.000000
O  0.255050  0.751684  0.901367 1.000000 Biso 1.000000
O  0.244950  0.414984  0.431967 1.000000 Biso 1.000000
O  0.744950  0.914984  0.431967 1.000000 Biso 1.000000
