_audit_creation_date      'June 2, 2020'
_audit_creation_method    'Draft CIF file generated with Atomsk'
 
_chemical_name_common             ?
_chemical_melting_point           ?
_chemical_formula_iupac           'Na4 Al44 O68'
_chemical_formula_moiety          'Na4 Al44 O68'
_chemical_formula_sum             'Na4 Al44 O68'
_chemical_formula_weight          2367.079
_chemical_compound_source         ?
_chemical_absolute_configuration  ?
 
_space_group_IT_number            1
_symmetry_cell_setting            triclinic
_symmetry_space_group_name_Hall   'P 1'
_symmetry_space_group_name_H-M    'P 1'
 
_cell_length_a                    5.5840
_cell_length_b                    9.6718
_cell_length_c                    22.4500
_cell_angle_alpha                 90.0000
_cell_angle_beta                  90.0000
_cell_angle_gamma                 90.0000
_cell_volume                      1212.4610
 
loop_
 _atom_site_type_symbol
 _atom_site_fract_x
 _atom_site_fract_y
 _atom_site_fract_z
 _atom_site_occupancy
 _atom_site_thermal_displace_type
 _atom_site_B_iso_or_equiv
Na  0.500001  0.166667  0.250000 1.000000 Biso 1.000000
Na  0.000001  0.666667  0.250000 1.000000 Biso 1.000000
Na  1.000000  0.333334  0.750000 1.000000 Biso 1.000000
Na  0.500000  0.833334  0.750000 1.000000 Biso 1.000000
Al  0.000000  0.000000  0.000000 1.000000 Biso 1.000000
Al  0.500000  0.500000  0.000000 1.000000 Biso 1.000000
Al  0.000000  0.000000  0.500000 1.000000 Biso 1.000000
Al  0.500000  0.500000  0.500000 1.000000 Biso 1.000000
Al  1.000000  0.333334  0.022000 1.000000 Biso 1.000000
Al  0.500000  0.833334  0.022000 1.000000 Biso 1.000000
Al  0.500001  0.166667  0.978000 1.000000 Biso 1.000000
Al  0.000001  0.666667  0.978000 1.000000 Biso 1.000000
Al  0.500001  0.166667  0.522000 1.000000 Biso 1.000000
Al  0.000001  0.666667  0.522000 1.000000 Biso 1.000000
Al  1.000000  0.333334  0.478000 1.000000 Biso 1.000000
Al  0.500000  0.833334  0.478000 1.000000 Biso 1.000000
Al  0.250000  0.083334  0.106000 1.000000 Biso 1.000000
Al  0.750000  0.583334  0.106000 1.000000 Biso 1.000000
Al  0.250001  0.416667  0.894000 1.000000 Biso 1.000000
Al  0.750001  0.916667  0.894000 1.000000 Biso 1.000000
Al  0.750000  0.083334  0.106000 1.000000 Biso 1.000000
Al  0.250000  0.583334  0.106000 1.000000 Biso 1.000000
Al  0.750001  0.416667  0.894000 1.000000 Biso 1.000000
Al  0.250001  0.916667  0.894000 1.000000 Biso 1.000000
Al  0.500000  0.333334  0.106000 1.000000 Biso 1.000000
Al  1.000000  0.833334  0.106000 1.000000 Biso 1.000000
Al  0.000001  0.166667  0.894000 1.000000 Biso 1.000000
Al  0.500001  0.666667  0.894000 1.000000 Biso 1.000000
Al  0.250001  0.416667  0.606000 1.000000 Biso 1.000000
Al  0.750001  0.916667  0.606000 1.000000 Biso 1.000000
Al  0.250000  0.083334  0.394000 1.000000 Biso 1.000000
Al  0.750000  0.583334  0.394000 1.000000 Biso 1.000000
Al  0.750001  0.416667  0.606000 1.000000 Biso 1.000000
Al  0.250001  0.916667  0.606000 1.000000 Biso 1.000000
Al  0.750000  0.083334  0.394000 1.000000 Biso 1.000000
Al  0.250000  0.583334  0.394000 1.000000 Biso 1.000000
Al  0.000001  0.166667  0.606000 1.000000 Biso 1.000000
Al  0.500001  0.666667  0.606000 1.000000 Biso 1.000000
Al  0.500000  0.333334  0.394000 1.000000 Biso 1.000000
Al  1.000000  0.833334  0.394000 1.000000 Biso 1.000000
Al  1.000000  0.333334  0.178000 1.000000 Biso 1.000000
Al  0.500000  0.833334  0.178000 1.000000 Biso 1.000000
Al  0.500001  0.166667  0.822000 1.000000 Biso 1.000000
Al  0.000001  0.666667  0.822000 1.000000 Biso 1.000000
Al  0.500001  0.166667  0.678000 1.000000 Biso 1.000000
Al  0.000001  0.666667  0.678000 1.000000 Biso 1.000000
Al  1.000000  0.333334  0.322000 1.000000 Biso 1.000000
Al  0.500000  0.833334  0.322000 1.000000 Biso 1.000000
O  0.000001  0.166667  0.050000 1.000000 Biso 1.000000
O  0.500001  0.666667  0.050000 1.000000 Biso 1.000000
O  0.500000  0.333334  0.950000 1.000000 Biso 1.000000
O  1.000000  0.833334  0.950000 1.000000 Biso 1.000000
O  0.250001  0.416666  0.050000 1.000000 Biso 1.000000
O  0.750001  0.916667  0.050000 1.000000 Biso 1.000000
O  0.250000  0.083334  0.950000 1.000000 Biso 1.000000
O  0.750000  0.583334  0.950000 1.000000 Biso 1.000000
O  0.750001  0.416666  0.050000 1.000000 Biso 1.000000
O  0.250001  0.916667  0.050000 1.000000 Biso 1.000000
O  0.750000  0.083334  0.950000 1.000000 Biso 1.000000
O  0.250000  0.583334  0.950000 1.000000 Biso 1.000000
O  0.500000  0.333334  0.550000 1.000000 Biso 1.000000
O  1.000000  0.833334  0.550000 1.000000 Biso 1.000000
O  0.000001  0.166667  0.450000 1.000000 Biso 1.000000
O  0.500001  0.666667  0.450000 1.000000 Biso 1.000000
O  0.250000  0.083334  0.550000 1.000000 Biso 1.000000
O  0.750000  0.583334  0.550000 1.000000 Biso 1.000000
O  0.250001  0.416667  0.450000 1.000000 Biso 1.000000
O  0.750001  0.916667  0.450000 1.000000 Biso 1.000000
O  0.750000  0.083334  0.550000 1.000000 Biso 1.000000
O  0.250000  0.583334  0.550000 1.000000 Biso 1.000000
O  0.750001  0.416667  0.450000 1.000000 Biso 1.000000
O  0.250001  0.916667  0.450000 1.000000 Biso 1.000000
O  0.500001  0.166667  0.050000 1.000000 Biso 1.000000
O  0.000001  0.666667  0.050000 1.000000 Biso 1.000000
O  1.000000  0.333334  0.950000 1.000000 Biso 1.000000
O  0.500000  0.833334  0.950000 1.000000 Biso 1.000000
O  1.000000  0.333334  0.550000 1.000000 Biso 1.000000
O  0.500000  0.833334  0.550000 1.000000 Biso 1.000000
O  0.500001  0.166667  0.450000 1.000000 Biso 1.000000
O  0.000001  0.666667  0.450000 1.000000 Biso 1.000000
O  0.000000  0.000000  0.144000 1.000000 Biso 1.000000
O  0.500000  0.500000  0.144000 1.000000 Biso 1.000000
O  0.000000  0.000000  0.856000 1.000000 Biso 1.000000
O  0.500000  0.500000  0.856000 1.000000 Biso 1.000000
O  0.000000  0.000000  0.644000 1.000000 Biso 1.000000
O  0.500000  0.500000  0.644000 1.000000 Biso 1.000000
O  0.000000  0.000000  0.356000 1.000000 Biso 1.000000
O  0.500000  0.500000  0.356000 1.000000 Biso 1.000000
O  0.250000  0.250000  0.144000 1.000000 Biso 1.000000
O  0.750000  0.750000  0.144000 1.000000 Biso 1.000000
O  0.250000  0.250000  0.856000 1.000000 Biso 1.000000
O  0.750000  0.750000  0.856000 1.000000 Biso 1.000000
O  0.500000  0.000000  0.144000 1.000000 Biso 1.000000
O  0.000000  0.500000  0.144000 1.000000 Biso 1.000000
O  0.500000  0.000000  0.856000 1.000000 Biso 1.000000
O  0.000000  0.500000  0.856000 1.000000 Biso 1.000000
O  0.750000  0.250000  0.144000 1.000000 Biso 1.000000
O  0.250000  0.750000  0.144000 1.000000 Biso 1.000000
O  0.750000  0.250000  0.856000 1.000000 Biso 1.000000
O  0.250000  0.750000  0.856000 1.000000 Biso 1.000000
O  0.250000  0.250000  0.644000 1.000000 Biso 1.000000
O  0.750000  0.750000  0.644000 1.000000 Biso 1.000000
O  0.250000  0.250000  0.356000 1.000000 Biso 1.000000
O  0.750000  0.750000  0.356000 1.000000 Biso 1.000000
O  0.500000  0.000000  0.644000 1.000000 Biso 1.000000
O  0.000000  0.500000  0.644000 1.000000 Biso 1.000000
O  0.500000  0.000000  0.356000 1.000000 Biso 1.000000
O  0.000000  0.500000  0.356000 1.000000 Biso 1.000000
O  0.750000  0.250000  0.644000 1.000000 Biso 1.000000
O  0.250000  0.750000  0.644000 1.000000 Biso 1.000000
O  0.750000  0.250000  0.356000 1.000000 Biso 1.000000
O  0.250000  0.750000  0.356000 1.000000 Biso 1.000000
O  1.000000  0.333334  0.250000 1.000000 Biso 1.000000
O  0.500000  0.833334  0.250000 1.000000 Biso 1.000000
O  0.500001  0.166667  0.750000 1.000000 Biso 1.000000
O  0.000001  0.666667  0.750000 1.000000 Biso 1.000000
